; Filename: /home/jessica/Git/rs_JESSICA/networks/any-town.inp
; WNTR: 1.2.0
; Created: 2024-10-08 14:43:34
[TITLE]
Any Town Model. Initial model for ANN training
Tank levels unlimited. Optimisated results

[JUNCTIONS]
;ID                      Elevation       Demand Pattern                 
 20                             6.096       113.56235 DEM                        ;
 30                             15.24        45.42494 DEM                        ;
 110                            15.24       113.56235 DEM                        ;
 70                             15.24       113.56235 DEM                        ;
 60                             15.24       113.56235 DEM                        ;
 90                             15.24        227.1247 DEM90                      ;
 100                            15.24       113.56235 DEM                        ;
 40                             15.24        45.42494 DEM                        ;
 50                             15.24        45.42494 DEM                        ;
 80                             15.24       113.56235 DEM                        ;
 150                           36.576        45.42494 DEM                        ;
 140                           24.384        45.42494 DEM                        ;
 170                           36.576        45.42494 DEM170                     ;
 130                           36.576        45.42494 DEM                        ;
 160                           36.576       181.69976 DEM                        ;
 120                           36.576        45.42494 DEM                        ;
 55                            24.384        22.71247 DEM55                      ;
 75                            24.384        22.71247 DEM                        ;
 115                           24.384        22.71247 DEM                        ;

[RESERVOIRS]
;ID                                   Head                  Pattern
 10                             3.048                            ;

[TANKS]
;ID                              Elevation           Init Level            Min Level            Max Level             Diameter           Min Volume Volume Curve         Overflow            
 65                                 0    69.010269165           66.53           71.53           21.55               0                                             ;
 165                                0    67.203582764           66.53           71.53           21.55               0                                             ;
 265                                0    69.462913513           66.53           71.53           21.55               0                                             ;

[PIPES]
;ID                   Node1                Node2                              Length             Diameter            Roughness           Minor Loss               Status
 4                    20                   30                            3657.6           609.6             120               0                 Open   ;
 30                   30                   60                            1828.8             508             120               0                 Open   ;
 16                   60                   90                            1828.8           152.4             120               0                 Open   ;
 14                   70                   60                            1828.8           406.4             120               0                 Open   ;
 12                   70                   90                            1828.8             254             120               0                 Open   ;
 2                    20                   70                            3657.6           609.6             120               0                 Open   ;
 6                    20                   110                           3657.6           457.2             120               0                 Open   ;
 48                   110                  100                           1828.8           304.8             120               0                 Open   ;
 24                   100                  90                            1828.8             508             120               0                 Open   ;
 10                   70                   100                           1828.8           609.6             120               0                 Open   ;
 32                   30                   40                            1828.8           203.2             120               0                 Open   ;
 36                   40                   50                            1828.8           304.8             120               0                 Open   ;
 38                   50                   80                            1828.8           203.2             120               0                 Open   ;
 18                   80                   60                            1828.8           457.2             120               0                 Open   ;
 20                   80                   90                            1828.8           406.4             120               0                 Open   ;
 66                   50                   140                           3657.6           203.2             120               0                 Open   ;
 40                   140                  80                            1828.8           304.8             120               0                 Open   ;
 28                   80                   150                           1828.8           457.2             120               0                 Open   ;
 22                   150                  90                            1828.8           152.4             120               0                 Open   ;
 26                   150                  100                           1828.8           609.6             120               0                 Open   ;
 42                   150                  140                           1828.8             508             120               0                 Open   ;
 64                   140                  170                           3657.6           304.8             120               0                 Open   ;
 60                   170                  130                           1828.8           304.8             120               0                 Open   ;
 58                   130                  160                           1828.8           406.4             120               0                 Open   ;
 44                   160                  150                           1828.8           355.6             120               0                 Open   ;
 50                   160                  110                           1828.8           304.8             120               0                 Open   ;
 52                   110                  120                           1828.8           355.6             120               0                 Open   ;
 56                   120                  130                           1828.8           304.8             120               0                 Open   ;
 62                   140                  160                           1828.8             508             120               0                 Open   ;
 46                   100                  160                           1828.8           457.2             120               0                 Open   ;
 34                   50                   30                            2743.2           355.6             120               0                 Open   ;
 78                   65                   60                             30.48             508             120               0                 Open   ;
 80                   165                  160                            30.48           406.4             120               0                 Open   ;
 8                    70                   30                            2743.2           355.6             120               0                 Open   ;
 74                   50                   55                            1828.8           304.8             120               0                 Open   ;
 76                   55                   75                            1828.8           304.8             120               0                 Open   ;
 72                   75                   115                           1828.8           304.8             120               0                 Open   ;
 68                   115                  140                           1828.8           304.8             120               0                 Open   ;
 70                   75                   140                           1828.8           304.8             120               0                 Open   ;
 178                  140                  265                            30.48           406.4             120               0                 Open   ;
 54                   160                  120                           2743.2           304.8             120               0                 Open   ;

[PUMPS]
;ID                   Node1                Node2                Properties          
 222                  10                   20                   HEAD     1                    PATTERN    PMP222                 ;
 111                  10                   20                   HEAD     1                    PATTERN    PMP111                 ;
 333                  10                   20                   HEAD     1                    PATTERN    PMP333                 ;

[VALVES]
;ID                   Node1                Node2                            Diameter Type              Setting           Minor Loss

[TAGS]
;type      name       tag       

[DEMANDS]
;ID        Demand     Pattern   

[STATUS]
;ID        Setting   

[PATTERNS]
;ID        Multipliers

DEM 0.700000 0.700000 0.700000 0.600000 0.600000 0.600000
DEM 1.200000 1.200000 1.200000 1.300000 1.300000 1.300000
DEM 1.200000 1.200000 1.200000 1.000000 1.000000 1.000000
DEM 0.900000 0.900000 0.900000 0.700000 0.700000 0.700000

PMP111 1.000000 1.000000 1.000000 1.000000 1.000000 1.000000
PMP111 1.000000 1.000000 0.000000 0.000000 1.000000 1.000000
PMP111 1.000000 1.000000 1.000000 1.000000 1.000000 1.000000
PMP111 0.000000 0.000000 0.000000 1.000000 1.000000 0.000000

PMP222 0.000000 1.000000 0.000000 1.000000 0.000000 0.000000
PMP222 0.000000 0.000000 0.000000 0.000000 1.000000 1.000000
PMP222 1.000000 1.000000 1.000000 0.000000 0.000000 0.000000
PMP222 0.000000 0.000000 0.000000 0.000000 0.000000 0.000000

PMP333 0.000000 0.000000 0.000000 0.000000 0.000000 0.000000
PMP333 0.000000 0.000000 0.000000 0.000000 0.000000 0.000000
PMP333 0.000000 0.000000 0.000000 0.000000 1.000000 0.000000
PMP333 0.000000 0.000000 0.000000 1.000000 0.000000 0.000000

PRICES 18.140000 18.140000 18.140000 18.140000 18.140000 18.140000
PRICES 18.140000 35.280000 35.280000 35.280000 35.280000 35.280000
PRICES 35.280000 35.280000 35.280000 35.280000 35.280000 80.970000
PRICES 80.970000 80.970000 80.970000 18.140000 18.140000 18.140000

DEM90 0.700000 0.700000 0.700000 0.600000 0.600000 0.600000
DEM90 1.200000 1.200000 1.200000 1.300000 1.300000 1.300000
DEM90 1.200000 1.200000 1.200000 1.000000 1.000000 1.000000
DEM90 0.900000 0.900000 0.900000 0.700000 0.700000 0.700000

DEM55 0.700000 0.700000 0.700000 0.600000 0.600000 0.600000
DEM55 1.200000 1.200000 1.200000 1.300000 1.300000 1.300000
DEM55 1.200000 1.200000 1.200000 1.000000 1.000000 1.000000
DEM55 0.900000 0.900000 0.900000 0.700000 0.700000 0.700000

DEM170 0.700000 0.700000 0.700000 0.600000 0.600000 0.600000
DEM170 1.200000 1.200000 1.200000 1.300000 1.300000 1.300000
DEM170 1.200000 1.200000 1.200000 1.000000 1.000000 1.000000
DEM170 0.900000 0.900000 0.900000 0.700000 0.700000 0.700000

[CURVES]
;ID         X-Value      Y-Value     
;PUMP: 1
 1              0.000000    91.440000   ;
 1            454.249400    89.001600   ;
 1            908.498800    82.296000   ;
 1           1362.748200    70.104000   ;
 1           1816.997600    55.168800   ;

;EFFICIENCY: 2
 2              0.000000     0.000000   ;
 2            454.249400    50.000000   ;
 2            908.498800    65.000000   ;
 2           1362.748200    55.000000   ;
 2           1816.997600    40.000000   ;


[CONTROLS]

[RULES]

[ENERGY]
GLOBAL EFFICIENCY      75.0000
GLOBAL PRICE           0.0000
DEMAND CHARGE          0.0000
PUMP 111        EFFIC   2
PUMP 111        PRICE   1.0000
PUMP 111        PATTERN PRICES
PUMP 222        EFFIC   2
PUMP 222        PRICE   1.0000
PUMP 222        PATTERN PRICES
PUMP 333        EFFIC   2
PUMP 333        PRICE   1.0000
PUMP 333        PATTERN PRICES

[EMITTERS]
;ID        Flow coefficient

[QUALITY]

[SOURCES]
;Node      Type       Quality    Pattern   

[REACTIONS]
;Type           Pipe/Tank               Coefficient

 ORDER BULK 1
 ORDER TANK 1
 ORDER WALL 1
 GLOBAL BULK 0.0000    
 GLOBAL WALL 0.0000    
 LIMITING POTENTIAL 0.0000    
 ROUGHNESS CORRELATION 0.0000    

[MIXING]
;Tank ID             Model Fraction

[TIMES]
DURATION             24:00:00
HYDRAULIC TIMESTEP   01:00:00
QUALITY TIMESTEP     00:05:00
PATTERN TIMESTEP     01:00:00
PATTERN START        00:00:00
REPORT TIMESTEP      01:00:00
REPORT START         00:00:00
START CLOCKTIME      00:00:00 AM
RULE TIMESTEP        00:06:00
STATISTIC            NONE      

[REPORT]
SUMMARY    NO
PAGE       0

[OPTIONS]
UNITS                CMH                 
HEADLOSS             H-W                 
SPECIFIC GRAVITY     1
VISCOSITY            1
TRIALS               40
ACCURACY             0.01
CHECKFREQ            2
MAXCHECK             10
UNBALANCED           CONTINUE 10
PATTERN              DEM                 
DEMAND MULTIPLIER    1
EMITTER EXPONENT     2
QUALITY              NONE                
DIFFUSIVITY          1
TOLERANCE            0.01

[COORDINATES]
;Node      X-Coord    Y-Coord   
20                 98.220000000         10.000000000
30                 98.220000000         71.560000000
110                49.330000000         10.000000000
70                 72.220000000         30.670000000
60                 72.220000000         71.560000000
90                 55.560000000         53.110000000
100                51.560000000         30.890000000
40                 98.220000000         94.220000000
50                 42.440000000         94.220000000
80                 38.220000000         73.780000000
150                31.560000000         52.890000000
140                 8.220000000         66.670000000
170               -16.670000000         42.000000000
130                -3.330000000         21.110000000
160                 8.220000000         36.220000000
120                16.000000000          8.670000000
55                 31.530000000        110.590000000
75                 11.230000000        102.560000000
115                -4.110000000         87.460000000
10                118.670000000         10.000000000
65                 53.170000000         81.600000000
165                -1.910000000         42.790000000
265                -7.960000000         72.250000000

[VERTICES]
;Link      X-Coord    Y-Coord   
111               108.270000000         19.190000000
333               107.930000000          2.510000000

[LABELS]
 51.75            86.91            "65"
 -3.93            48.23            "165"
 -9.91            77.94            "265"
 34.56            112.88           "50"
 53.99            58.32            "90"
 -20.94           47.67            "170"

[BACKDROP]
DIMENSIONS    -23.44    3.57    125.44    115.68
UNITS    NONE
OFFSET    0.00    0.00

[END]
